*SPEF "ieee 1481-1999"
*DESIGN "user_proj_example"
*DATE "11:11:11 Fri 11 11, 1111"
*VENDOR "OpenRCX"
*PROGRAM "Parallel Extraction"
*VERSION "1.0"
*DESIGN_FLOW "NAME_SCOPE LOCAL" "PIN_CAP NONE"
*DIVIDER /
*DELIMITER :
*BUS_DELIMITER []
*T_UNIT 1 NS
*C_UNIT 1 PF
*R_UNIT 1 OHM
*L_UNIT 1 HENRY

*NAME_MAP
*1 io_in[0]
*2 io_in[10]
*3 io_in[11]
*4 io_in[12]
*5 io_in[13]
*6 io_in[14]
*7 io_in[15]
*8 io_in[16]
*9 io_in[17]
*10 io_in[18]
*11 io_in[19]
*12 io_in[1]
*13 io_in[20]
*14 io_in[21]
*15 io_in[22]
*16 io_in[23]
*17 io_in[24]
*18 io_in[25]
*19 io_in[26]
*20 io_in[27]
*21 io_in[28]
*22 io_in[29]
*23 io_in[2]
*24 io_in[30]
*25 io_in[31]
*26 io_in[32]
*27 io_in[33]
*28 io_in[34]
*29 io_in[35]
*30 io_in[36]
*31 io_in[37]
*32 io_in[3]
*33 io_in[4]
*34 io_in[5]
*35 io_in[6]
*36 io_in[7]
*37 io_in[8]
*38 io_in[9]
*39 io_oeb[0]
*40 io_oeb[10]
*41 io_oeb[11]
*42 io_oeb[12]
*43 io_oeb[13]
*44 io_oeb[14]
*45 io_oeb[15]
*46 io_oeb[16]
*47 io_oeb[17]
*48 io_oeb[18]
*49 io_oeb[19]
*50 io_oeb[1]
*51 io_oeb[20]
*52 io_oeb[21]
*53 io_oeb[22]
*54 io_oeb[23]
*55 io_oeb[24]
*56 io_oeb[25]
*57 io_oeb[26]
*58 io_oeb[27]
*59 io_oeb[28]
*60 io_oeb[29]
*61 io_oeb[2]
*62 io_oeb[30]
*63 io_oeb[31]
*64 io_oeb[32]
*65 io_oeb[33]
*66 io_oeb[34]
*67 io_oeb[35]
*68 io_oeb[36]
*69 net243
*70 io_oeb[3]
*71 io_oeb[4]
*72 io_oeb[5]
*73 io_oeb[6]
*74 io_oeb[7]
*75 io_oeb[8]
*76 io_oeb[9]
*77 io_out[0]
*78 io_out[10]
*79 io_out[11]
*80 io_out[12]
*81 io_out[13]
*82 io_out[14]
*83 io_out[15]
*84 io_out[16]
*85 io_out[17]
*86 io_out[18]
*87 io_out[19]
*88 io_out[1]
*89 io_out[20]
*90 io_out[21]
*91 io_out[22]
*92 io_out[23]
*93 io_out[24]
*94 io_out[25]
*95 io_out[26]
*96 io_out[27]
*97 io_out[28]
*98 io_out[29]
*99 io_out[2]
*100 io_out[30]
*101 io_out[31]
*102 net244
*103 net245
*104 net246
*105 net247
*106 net248
*107 net249
*108 io_out[3]
*109 io_out[4]
*110 io_out[5]
*111 io_out[6]
*112 io_out[7]
*113 io_out[8]
*114 io_out[9]
*115 net250
*116 net251
*117 net252
*118 la_data_in[0]
*119 la_data_in[100]
*120 la_data_in[101]
*121 la_data_in[102]
*122 la_data_in[103]
*123 la_data_in[104]
*124 la_data_in[105]
*125 la_data_in[106]
*126 la_data_in[107]
*127 la_data_in[108]
*128 la_data_in[109]
*129 la_data_in[10]
*130 la_data_in[110]
*131 la_data_in[111]
*132 la_data_in[112]
*133 la_data_in[113]
*134 la_data_in[114]
*135 la_data_in[115]
*136 la_data_in[116]
*137 la_data_in[117]
*138 la_data_in[118]
*139 la_data_in[119]
*140 la_data_in[11]
*141 la_data_in[120]
*142 la_data_in[121]
*143 la_data_in[122]
*144 la_data_in[123]
*145 la_data_in[124]
*146 la_data_in[125]
*147 la_data_in[126]
*148 la_data_in[127]
*149 la_data_in[12]
*150 la_data_in[13]
*151 la_data_in[14]
*152 la_data_in[15]
*153 la_data_in[16]
*154 la_data_in[17]
*155 la_data_in[18]
*156 la_data_in[19]
*157 la_data_in[1]
*158 la_data_in[20]
*159 la_data_in[21]
*160 la_data_in[22]
*161 la_data_in[23]
*162 la_data_in[24]
*163 la_data_in[25]
*164 la_data_in[26]
*165 la_data_in[27]
*166 la_data_in[28]
*167 la_data_in[29]
*168 la_data_in[2]
*169 la_data_in[30]
*170 la_data_in[31]
*171 la_data_in[32]
*172 la_data_in[33]
*173 la_data_in[34]
*174 la_data_in[35]
*175 la_data_in[36]
*176 la_data_in[37]
*177 la_data_in[38]
*178 la_data_in[39]
*179 la_data_in[3]
*180 la_data_in[40]
*181 la_data_in[41]
*182 la_data_in[42]
*183 la_data_in[43]
*184 la_data_in[44]
*185 la_data_in[45]
*186 la_data_in[46]
*187 la_data_in[47]
*188 la_data_in[48]
*189 la_data_in[49]
*190 la_data_in[4]
*191 la_data_in[50]
*192 la_data_in[51]
*193 la_data_in[52]
*194 la_data_in[53]
*195 la_data_in[54]
*196 la_data_in[55]
*197 la_data_in[56]
*198 la_data_in[57]
*199 la_data_in[58]
*200 la_data_in[59]
*201 la_data_in[5]
*202 la_data_in[60]
*203 la_data_in[61]
*204 la_data_in[62]
*205 la_data_in[63]
*206 la_data_in[64]
*207 la_data_in[65]
*208 la_data_in[66]
*209 la_data_in[67]
*210 la_data_in[68]
*211 la_data_in[69]
*212 la_data_in[6]
*213 la_data_in[70]
*214 la_data_in[71]
*215 la_data_in[72]
*216 la_data_in[73]
*217 la_data_in[74]
*218 la_data_in[75]
*219 la_data_in[76]
*220 la_data_in[77]
*221 la_data_in[78]
*222 la_data_in[79]
*223 la_data_in[7]
*224 la_data_in[80]
*225 la_data_in[81]
*226 la_data_in[82]
*227 la_data_in[83]
*228 la_data_in[84]
*229 la_data_in[85]
*230 la_data_in[86]
*231 la_data_in[87]
*232 la_data_in[88]
*233 la_data_in[89]
*234 la_data_in[8]
*235 la_data_in[90]
*236 la_data_in[91]
*237 la_data_in[92]
*238 la_data_in[93]
*239 la_data_in[94]
*240 la_data_in[95]
*241 la_data_in[96]
*242 la_data_in[97]
*243 la_data_in[98]
*244 la_data_in[99]
*245 la_data_in[9]
*246 la_data_out[0]
*247 net321
*248 net322
*249 net323
*250 net324
*251 net325
*252 net326
*253 net327
*254 net328
*255 net329
*256 net330
*257 la_data_out[10]
*258 net331
*259 net332
*260 net333
*261 net334
*262 net335
*263 net336
*264 net337
*265 net338
*266 net339
*267 net340
*268 la_data_out[11]
*269 net341
*270 net342
*271 net343
*272 net344
*273 net345
*274 net346
*275 net347
*276 net348
*277 la_data_out[12]
*278 la_data_out[13]
*279 la_data_out[14]
*280 la_data_out[15]
*281 la_data_out[16]
*282 la_data_out[17]
*283 la_data_out[18]
*284 la_data_out[19]
*285 la_data_out[1]
*286 la_data_out[20]
*287 la_data_out[21]
*288 la_data_out[22]
*289 la_data_out[23]
*290 la_data_out[24]
*291 la_data_out[25]
*292 la_data_out[26]
*293 la_data_out[27]
*294 la_data_out[28]
*295 la_data_out[29]
*296 la_data_out[2]
*297 la_data_out[30]
*298 la_data_out[31]
*299 net253
*300 net254
*301 net255
*302 net256
*303 net257
*304 net258
*305 net259
*306 net260
*307 la_data_out[3]
*308 net261
*309 net262
*310 net263
*311 net264
*312 net265
*313 net266
*314 net267
*315 net268
*316 net269
*317 net270
*318 la_data_out[4]
*319 net271
*320 net272
*321 net273
*322 net274
*323 net275
*324 net276
*325 net277
*326 net278
*327 net279
*328 net280
*329 la_data_out[5]
*330 net281
*331 net282
*332 net283
*333 net284
*334 net285
*335 net286
*336 net287
*337 net288
*338 net289
*339 net290
*340 la_data_out[6]
*341 net291
*342 net292
*343 net293
*344 net294
*345 net295
*346 net296
*347 net297
*348 net298
*349 net299
*350 net300
*351 la_data_out[7]
*352 net301
*353 net302
*354 net303
*355 net304
*356 net305
*357 net306
*358 net307
*359 net308
*360 net309
*361 net310
*362 la_data_out[8]
*363 net311
*364 net312
*365 net313
*366 net314
*367 net315
*368 net316
*369 net317
*370 net318
*371 net319
*372 net320
*373 la_data_out[9]
*374 la_oenb[0]
*375 la_oenb[100]
*376 la_oenb[101]
*377 la_oenb[102]
*378 la_oenb[103]
*379 la_oenb[104]
*380 la_oenb[105]
*381 la_oenb[106]
*382 la_oenb[107]
*383 la_oenb[108]
*384 la_oenb[109]
*385 la_oenb[10]
*386 la_oenb[110]
*387 la_oenb[111]
*388 la_oenb[112]
*389 la_oenb[113]
*390 la_oenb[114]
*391 la_oenb[115]
*392 la_oenb[116]
*393 la_oenb[117]
*394 la_oenb[118]
*395 la_oenb[119]
*396 la_oenb[11]
*397 la_oenb[120]
*398 la_oenb[121]
*399 la_oenb[122]
*400 la_oenb[123]
*401 la_oenb[124]
*402 la_oenb[125]
*403 la_oenb[126]
*404 la_oenb[127]
*405 la_oenb[12]
*406 la_oenb[13]
*407 la_oenb[14]
*408 la_oenb[15]
*409 la_oenb[16]
*410 la_oenb[17]
*411 la_oenb[18]
*412 la_oenb[19]
*413 la_oenb[1]
*414 la_oenb[20]
*415 la_oenb[21]
*416 la_oenb[22]
*417 la_oenb[23]
*418 la_oenb[24]
*419 la_oenb[25]
*420 la_oenb[26]
*421 la_oenb[27]
*422 la_oenb[28]
*423 la_oenb[29]
*424 la_oenb[2]
*425 la_oenb[30]
*426 la_oenb[31]
*427 la_oenb[32]
*428 la_oenb[33]
*429 la_oenb[34]
*430 la_oenb[35]
*431 la_oenb[36]
*432 la_oenb[37]
*433 la_oenb[38]
*434 la_oenb[39]
*435 la_oenb[3]
*436 la_oenb[40]
*437 la_oenb[41]
*438 la_oenb[42]
*439 la_oenb[43]
*440 la_oenb[44]
*441 la_oenb[45]
*442 la_oenb[46]
*443 la_oenb[47]
*444 la_oenb[48]
*445 la_oenb[49]
*446 la_oenb[4]
*447 la_oenb[50]
*448 la_oenb[51]
*449 la_oenb[52]
*450 la_oenb[53]
*451 la_oenb[54]
*452 la_oenb[55]
*453 la_oenb[56]
*454 la_oenb[57]
*455 la_oenb[58]
*456 la_oenb[59]
*457 la_oenb[5]
*458 la_oenb[60]
*459 la_oenb[61]
*460 la_oenb[62]
*461 la_oenb[63]
*462 la_oenb[64]
*463 la_oenb[65]
*464 la_oenb[66]
*465 la_oenb[67]
*466 la_oenb[68]
*467 la_oenb[69]
*468 la_oenb[6]
*469 la_oenb[70]
*470 la_oenb[71]
*471 la_oenb[72]
*472 la_oenb[73]
*473 la_oenb[74]
*474 la_oenb[75]
*475 la_oenb[76]
*476 la_oenb[77]
*477 la_oenb[78]
*478 la_oenb[79]
*479 la_oenb[7]
*480 la_oenb[80]
*481 la_oenb[81]
*482 la_oenb[82]
*483 la_oenb[83]
*484 la_oenb[84]
*485 la_oenb[85]
*486 la_oenb[86]
*487 la_oenb[87]
*488 la_oenb[88]
*489 la_oenb[89]
*490 la_oenb[8]
*491 la_oenb[90]
*492 la_oenb[91]
*493 la_oenb[92]
*494 la_oenb[93]
*495 la_oenb[94]
*496 la_oenb[95]
*497 la_oenb[96]
*498 la_oenb[97]
*499 la_oenb[98]
*500 la_oenb[99]
*501 la_oenb[9]
*504 wb_clk_i
*505 wb_rst_i
*506 wbs_ack_o
*507 wbs_adr_i[0]
*508 wbs_adr_i[10]
*509 wbs_adr_i[11]
*510 wbs_adr_i[12]
*511 wbs_adr_i[13]
*512 wbs_adr_i[14]
*513 wbs_adr_i[15]
*514 wbs_adr_i[16]
*515 wbs_adr_i[17]
*516 wbs_adr_i[18]
*517 wbs_adr_i[19]
*518 wbs_adr_i[1]
*519 wbs_adr_i[20]
*520 wbs_adr_i[21]
*521 wbs_adr_i[22]
*522 wbs_adr_i[23]
*523 wbs_adr_i[24]
*524 wbs_adr_i[25]
*525 wbs_adr_i[26]
*526 wbs_adr_i[27]
*527 wbs_adr_i[28]
*528 wbs_adr_i[29]
*529 wbs_adr_i[2]
*530 wbs_adr_i[30]
*531 wbs_adr_i[31]
*532 wbs_adr_i[3]
*533 wbs_adr_i[4]
*534 wbs_adr_i[5]
*535 wbs_adr_i[6]
*536 wbs_adr_i[7]
*537 wbs_adr_i[8]
*538 wbs_adr_i[9]
*539 wbs_cyc_i
*540 wbs_dat_i[0]
*541 wbs_dat_i[10]
*542 wbs_dat_i[11]
*543 wbs_dat_i[12]
*544 wbs_dat_i[13]
*545 wbs_dat_i[14]
*546 wbs_dat_i[15]
*547 wbs_dat_i[16]
*548 wbs_dat_i[17]
*549 wbs_dat_i[18]
*550 wbs_dat_i[19]
*551 wbs_dat_i[1]
*552 wbs_dat_i[20]
*553 wbs_dat_i[21]
*554 wbs_dat_i[22]
*555 wbs_dat_i[23]
*556 wbs_dat_i[24]
*557 wbs_dat_i[25]
*558 wbs_dat_i[26]
*559 wbs_dat_i[27]
*560 wbs_dat_i[28]
*561 wbs_dat_i[29]
*562 wbs_dat_i[2]
*563 wbs_dat_i[30]
*564 wbs_dat_i[31]
*565 wbs_dat_i[3]
*566 wbs_dat_i[4]
*567 wbs_dat_i[5]
*568 wbs_dat_i[6]
*569 wbs_dat_i[7]
*570 wbs_dat_i[8]
*571 wbs_dat_i[9]
*572 wbs_dat_o[0]
*573 wbs_dat_o[10]
*574 wbs_dat_o[11]
*575 wbs_dat_o[12]
*576 wbs_dat_o[13]
*577 wbs_dat_o[14]
*578 wbs_dat_o[15]
*579 wbs_dat_o[16]
*580 wbs_dat_o[17]
*581 wbs_dat_o[18]
*582 wbs_dat_o[19]
*583 wbs_dat_o[1]
*584 wbs_dat_o[20]
*585 wbs_dat_o[21]
*586 wbs_dat_o[22]
*587 wbs_dat_o[23]
*588 wbs_dat_o[24]
*589 wbs_dat_o[25]
*590 wbs_dat_o[26]
*591 wbs_dat_o[27]
*592 wbs_dat_o[28]
*593 wbs_dat_o[29]
*594 wbs_dat_o[2]
*595 wbs_dat_o[30]
*596 wbs_dat_o[31]
*597 wbs_dat_o[3]
*598 wbs_dat_o[4]
*599 wbs_dat_o[5]
*600 wbs_dat_o[6]
*601 wbs_dat_o[7]
*602 wbs_dat_o[8]
*603 wbs_dat_o[9]
*604 wbs_sel_i[0]
*605 wbs_sel_i[1]
*606 wbs_sel_i[2]
*607 wbs_sel_i[3]
*608 wbs_stb_i
*609 wbs_we_i
*610 _000_
*611 _001_
*612 _002_
*613 _003_
*614 _004_
*615 _005_
*616 _006_
*617 _007_
*618 _008_
*619 _009_
*620 _010_
*621 _011_
*622 _012_
*623 _013_
*624 _014_
*625 _015_
*626 _016_
*627 _017_
*628 _018_
*629 _019_
*630 _020_
*631 clknet_0_counter\.clk
*632 clknet_1_0_0_counter\.clk
*633 clknet_1_1_0_counter\.clk
*634 clknet_2_0_0_counter\.clk
*635 clknet_2_1_0_counter\.clk
*636 clknet_2_2_0_counter\.clk
*637 clknet_2_3_0_counter\.clk
*638 clknet_3_0_0_counter\.clk
*639 clknet_3_1_0_counter\.clk
*640 clknet_3_2_0_counter\.clk
*641 clknet_3_3_0_counter\.clk
*642 clknet_3_4_0_counter\.clk
*643 clknet_3_5_0_counter\.clk
*644 clknet_3_6_0_counter\.clk
*645 clknet_3_7_0_counter\.clk
*646 counter\._000_
*647 counter\._001_
*648 counter\._002_
*649 counter\._003_
*650 counter\._004_
*651 counter\._005_
*652 counter\._006_
*653 counter\._007_
*654 counter\._008_
*655 counter\._009_
*656 counter\._010_
*657 counter\._011_
*658 counter\._012_
*659 counter\._013_
*660 counter\._014_
*661 counter\._015_
*662 counter\._016_
*663 counter\._017_
*664 counter\._018_
*665 counter\._019_
*666 counter\._020_
*667 counter\._021_
*668 counter\._022_
*669 counter\._023_
*670 counter\._024_
*671 counter\._025_
*672 counter\._026_
*673 counter\._027_
*674 counter\._028_
*675 counter\._029_
*676 counter\._030_
*677 counter\._031_
*678 counter\._032_
*679 counter\._033_
*680 counter\._034_
*681 counter\._035_
*682 counter\._036_
*683 counter\._037_
*684 counter\._038_
*685 counter\._039_
*686 counter\._040_
*687 counter\._041_
*688 counter\._042_
*689 counter\._043_
*690 counter\._044_
*691 counter\._045_
*692 counter\._046_
*693 counter\._047_
*694 counter\._048_
*695 counter\._049_
*696 counter\._050_
*697 counter\._051_
*698 counter\._052_
*699 counter\._053_
*700 counter\._054_
*701 counter\._055_
*702 counter\._056_
*703 counter\._057_
*704 counter\._058_
*705 counter\._059_
*706 counter\._060_
*707 counter\._061_
*708 counter\._062_
*709 counter\._063_
*710 counter\._064_
*711 counter\._065_
*712 counter\._066_
*713 counter\._067_
*714 counter\._068_
*715 counter\._069_
*716 counter\._070_
*717 counter\._071_
*718 counter\._072_
*719 counter\._073_
*720 counter\._074_
*721 counter\._075_
*722 counter\._076_
*723 counter\._077_
*724 counter\._078_
*725 counter\._079_
*726 counter\._080_
*727 counter\._081_
*728 counter\._082_
*729 counter\._083_
*730 counter\._084_
*731 counter\._085_
*732 counter\._086_
*733 counter\._087_
*734 counter\._088_
*735 counter\._089_
*736 counter\._090_
*737 counter\._091_
*738 counter\._092_
*739 counter\._093_
*740 counter\._094_
*741 counter\._095_
*742 counter\._096_
*743 counter\._097_
*744 counter\._098_
*745 counter\._099_
*746 counter\._100_
*747 counter\._101_
*748 counter\._102_
*749 counter\._103_
*750 counter\._104_
*751 counter\._105_
*752 counter\._106_
*753 counter\._107_
*754 counter\._108_
*755 counter\._109_
*756 counter\._110_
*757 counter\._111_
*758 counter\._112_
*759 counter\._113_
*760 counter\._114_
*761 counter\._115_
*762 counter\._116_
*763 counter\._117_
*764 counter\._118_
*765 counter\._119_
*766 counter\._120_
*767 counter\._121_
*768 counter\._122_
*769 counter\._123_
*770 counter\._124_
*771 counter\._125_
*772 counter\._126_
*773 counter\._127_
*774 counter\._128_
*775 counter\._129_
*776 counter\._130_
*777 counter\._131_
*778 counter\._132_
*779 counter\._133_
*780 counter\._134_
*781 counter\._135_
*782 counter\._136_
*783 counter\._137_
*784 counter\._138_
*785 counter\._139_
*786 counter\._140_
*787 counter\._141_
*788 counter\._142_
*789 counter\._143_
*790 counter\._144_
*791 counter\._145_
*792 counter\._146_
*793 counter\._147_
*794 counter\._148_
*795 counter\._149_
*796 counter\._150_
*797 counter\._151_
*798 counter\._152_
*799 counter\._153_
*800 counter\._154_
*801 counter\._155_
*802 counter\._156_
*803 counter\._157_
*804 counter\._158_
*805 counter\._159_
*806 counter\._160_
*807 counter\._161_
*808 counter\._162_
*809 counter\._163_
*810 counter\._164_
*811 counter\._165_
*812 counter\._166_
*813 counter\._167_
*814 counter\._168_
*815 counter\._169_
*816 counter\._170_
*817 counter\._171_
*818 counter\._172_
*819 counter\._173_
*820 counter\._174_
*821 counter\._175_
*822 counter\._176_
*823 counter\._177_
*824 counter\._178_
*825 counter\._179_
*826 counter\._180_
*827 counter\._181_
*828 counter\._182_
*829 counter\._183_
*830 counter\._184_
*831 counter\._185_
*832 counter\._186_
*833 counter\._187_
*834 counter\._188_
*835 counter\._189_
*836 counter\._190_
*837 counter\._191_
*838 counter\._192_
*839 counter\._193_
*840 counter\._194_
*841 counter\._195_
*842 counter\._196_
*843 counter\._197_
*844 counter\._198_
*845 counter\._199_
*846 counter\._200_
*847 counter\._201_
*848 counter\._202_
*849 counter\._203_
*850 counter\._204_
*851 counter\._205_
*852 counter\._206_
*853 counter\._207_
*854 counter\._208_
*855 counter\._209_
*856 counter\._210_
*857 counter\._211_
*858 counter\._212_
*859 counter\._213_
*860 counter\._214_
*861 counter\._215_
*862 counter\._216_
*863 counter\._217_
*864 counter\._218_
*865 counter\._219_
*866 counter\._220_
*867 counter\._221_
*868 counter\._222_
*869 counter\._223_
*870 counter\._224_
*871 counter\._225_
*872 counter\._226_
*873 counter\._227_
*874 counter\._228_
*875 counter\._229_
*876 counter\._230_
*877 counter\._231_
*878 counter\._232_
*879 counter\._233_
*880 counter\._234_
*881 counter\._235_
*882 counter\._236_
*883 counter\._237_
*884 counter\._238_
*885 counter\._239_
*886 counter\._240_
*887 counter\._241_
*888 counter\._242_
*889 counter\._243_
*890 counter\._244_
*891 counter\._245_
*892 counter\._246_
*893 counter\._247_
*894 counter\._248_
*895 counter\._249_
*896 counter\._250_
*897 counter\._251_
*898 counter\._252_
*899 counter\._253_
*900 counter\._254_
*901 counter\._255_
*902 counter\._256_
*903 counter\._257_
*904 counter\._258_
*905 counter\._259_
*906 counter\._260_
*907 counter\._261_
*908 counter\._262_
*909 counter\._263_
*910 counter\._264_
*911 counter\._265_
*912 counter\._266_
*913 counter\._267_
*914 counter\._268_
*915 counter\._269_
*916 counter\._270_
*917 counter\._271_
*918 counter\._272_
*919 counter\._273_
*920 counter\._274_
*921 counter\._275_
*922 counter\._276_
*923 counter\._277_
*924 counter\._278_
*925 counter\._279_
*926 counter\._280_
*927 counter\._281_
*928 counter\._282_
*929 counter\._283_
*930 counter\._284_
*931 counter\._285_
*932 counter\._286_
*933 counter\._287_
*934 counter\._288_
*935 counter\._289_
*936 counter\._290_
*937 counter\._291_
*938 counter\._292_
*939 counter\._293_
*940 counter\._294_
*941 counter\._295_
*942 counter\._296_
*943 counter\._297_
*944 counter\._298_
*945 counter\._299_
*946 counter\._300_
*947 counter\._301_
*948 counter\._302_
*949 counter\._303_
*950 counter\._304_
*951 counter\._305_
*952 counter\._306_
*953 counter\._307_
*954 counter\._308_
*955 counter\._309_
*956 counter\._310_
*957 counter\._311_
*958 counter\._312_
*959 counter\._313_
*960 counter\._314_
*961 counter\._315_
*962 counter\._316_
*963 counter\._317_
*964 counter\._318_
*965 counter\._319_
*966 counter\._320_
*967 counter\._321_
*968 counter\._322_
*969 counter\._323_
*970 counter\._324_
*971 counter\._325_
*972 counter\._326_
*973 counter\._327_
*974 counter\._328_
*975 counter\._329_
*976 counter\._330_
*977 counter\._331_
*978 counter\._332_
*979 counter\._333_
*980 counter\._334_
*981 counter\._335_
*982 counter\.clk
*983 counter\.count\[0\]
*984 counter\.count\[10\]
*985 counter\.count\[11\]
*986 counter\.count\[12\]
*987 counter\.count\[13\]
*988 counter\.count\[14\]
*989 counter\.count\[15\]
*990 counter\.count\[16\]
*991 counter\.count\[17\]
*992 counter\.count\[18\]
*993 counter\.count\[19\]
*994 counter\.count\[1\]
*995 counter\.count\[20\]
*996 counter\.count\[21\]
*997 counter\.count\[22\]
*998 counter\.count\[23\]
*999 counter\.count\[24\]
*1000 counter\.count\[25\]
*1001 counter\.count\[26\]
*1002 counter\.count\[27\]
*1003 counter\.count\[28\]
*1004 counter\.count\[29\]
*1005 counter\.count\[2\]
*1006 counter\.count\[30\]
*1007 counter\.count\[31\]
*1008 counter\.count\[3\]
*1009 counter\.count\[4\]
*1010 counter\.count\[5\]
*1011 counter\.count\[6\]
*1012 counter\.count\[7\]
*1013 counter\.count\[8\]
*1014 counter\.count\[9\]
*1015 counter\.la_write\[0\]
*1016 counter\.la_write\[10\]
*1017 counter\.la_write\[11\]
*1018 counter\.la_write\[12\]
*1019 counter\.la_write\[13\]
*1020 counter\.la_write\[14\]
*1021 counter\.la_write\[15\]
*1022 counter\.la_write\[16\]
*1023 counter\.la_write\[17\]
*1024 counter\.la_write\[18\]
*1025 counter\.la_write\[19\]
*1026 counter\.la_write\[1\]
*1027 counter\.la_write\[20\]
*1028 counter\.la_write\[21\]
*1029 counter\.la_write\[22\]
*1030 counter\.la_write\[23\]
*1031 counter\.la_write\[24\]
*1032 counter\.la_write\[25\]
*1033 counter\.la_write\[26\]
*1034 counter\.la_write\[27\]
*1035 counter\.la_write\[28\]
*1036 counter\.la_write\[29\]
*1037 counter\.la_write\[2\]
*1038 counter\.la_write\[30\]
*1039 counter\.la_write\[31\]
*1040 counter\.la_write\[3\]
*1041 counter\.la_write\[4\]
*1042 counter\.la_write\[5\]
*1043 counter\.la_write\[6\]
*1044 counter\.la_write\[7\]
*1045 counter\.la_write\[8\]
*1046 counter\.la_write\[9\]
*1047 counter\.rdata\[0\]
*1048 counter\.rdata\[10\]
*1049 counter\.rdata\[11\]
*1050 counter\.rdata\[12\]
*1051 counter\.rdata\[13\]
*1052 counter\.rdata\[14\]
*1053 counter\.rdata\[15\]
*1054 counter\.rdata\[16\]
*1055 counter\.rdata\[17\]
*1056 counter\.rdata\[18\]
*1057 counter\.rdata\[19\]
*1058 counter\.rdata\[1\]
*1059 counter\.rdata\[20\]
*1060 counter\.rdata\[21\]
*1061 counter\.rdata\[22\]
*1062 counter\.rdata\[23\]
*1063 counter\.rdata\[24\]
*1064 counter\.rdata\[25\]
*1065 counter\.rdata\[26\]
*1066 counter\.rdata\[27\]
*1067 counter\.rdata\[28\]
*1068 counter\.rdata\[29\]
*1069 counter\.rdata\[2\]
*1070 counter\.rdata\[30\]
*1071 counter\.rdata\[31\]
*1072 counter\.rdata\[3\]
*1073 counter\.rdata\[4\]
*1074 counter\.rdata\[5\]
*1075 counter\.rdata\[6\]
*1076 counter\.rdata\[7\]
*1077 counter\.rdata\[8\]
*1078 counter\.rdata\[9\]
*1079 counter\.reset
*1080 counter\.valid
*1081 counter\.wstrb\[0\]
*1082 counter\.wstrb\[1\]
*1083 counter\.wstrb\[2\]
*1084 counter\.wstrb\[3\]
*1085 net1
*1086 net10
*1087 net100
*1088 net101
*1089 net102
*1090 net103
*1091 net104
*1092 net105
*1093 net106
*1094 net107
*1095 net108
*1096 net109
*1097 net11
*1098 net110
*1099 net111
*1100 net112
*1101 net113
*1102 net114
*1103 net115
*1104 net116
*1105 net117
*1106 net118
*1107 net119
*1108 net12
*1109 net120
*1110 net121
*1111 net122
*1112 net123
*1113 net124
*1114 net125
*1115 net126
*1116 net127
*1117 net128
*1118 net129
*1119 net13
*1120 net130
*1121 net131
*1122 net132
*1123 net133
*1124 net134
*1125 net135
*1126 net136
*1127 net137
*1128 net138
*1129 net139
*1130 net14
*1131 net140
*1132 net141
*1133 net142
*1134 net143
*1135 net144
*1136 net145
*1137 net146
*1138 net147
*1139 net148
*1140 net149
*1141 net15
*1142 net150
*1143 net151
*1144 net152
*1145 net153
*1146 net154
*1147 net155
*1148 net156
*1149 net157
*1150 net158
*1151 net159
*1152 net16
*1153 net160
*1154 net161
*1155 net162
*1156 net163
*1157 net164
*1158 net165
*1159 net166
*1160 net167
*1161 net168
*1162 net169
*1163 net17
*1164 net170
*1165 net171
*1166 net172
*1167 net173
*1168 net174
*1169 net175
*1170 net176
*1171 net177
*1172 net178
*1173 net179
*1174 net18
*1175 net180
*1176 net181
*1177 net182
*1178 net183
*1179 net184
*1180 net185
*1181 net186
*1182 net187
*1183 net188
*1184 net189
*1185 net19
*1186 net190
*1187 net191
*1188 net192
*1189 net193
*1190 net194
*1191 net195
*1192 net196
*1193 net197
*1194 net198
*1195 net199
*1196 net2
*1197 net20
*1198 net200
*1199 net201
*1200 net202
*1201 net203
*1202 net204
*1203 net205
*1204 net206
*1205 net207
*1206 net208
*1207 net209
*1208 net21
*1209 net210
*1210 net211
*1211 net212
*1212 net213
*1213 net214
*1214 net215
*1215 net216
*1216 net217
*1217 net218
*1218 net219
*1219 net22
*1220 net220
*1221 net221
*1222 net222
*1223 net223
*1224 net224
*1225 net225
*1226 net226
*1227 net227
*1228 net228
*1229 net229
*1230 net23
*1231 net230
*1232 net231
*1233 net232
*1234 net233
*1235 net234
*1236 net235
*1237 net236
*1238 net237
*1239 net238
*1240 net239
*1241 net24
*1242 net240
*1243 net241
*1244 net242
*1245 net25
*1246 net26
*1247 net27
*1248 net28
*1249 net29
*1250 net3
*1251 net30
*1252 net31
*1253 net32
*1254 net33
*1255 net34
*1256 net35
*1257 net36
*1258 net37
*1259 net38
*1260 net39
*1261 net4
*1262 net40
*1263 net41
*1264 net42
*1265 net43
*1266 net44
*1267 net45
*1268 net46
*1269 net47
*1270 net48
*1271 net49
*1272 net5
*1273 net50
*1274 net51
*1275 net52
*1276 net53
*1277 net54
*1278 net55
*1279 net56
*1280 net57
*1281 net58
*1282 net59
*1283 net6
*1284 net60
*1285 net61
*1286 net62
*1287 net63
*1288 net64
*1289 net65
*1290 net66
*1291 net67
*1292 net68
*1293 net69
*1294 net7
*1295 net70
*1296 net71
*1297 net72
*1298 net73
*1299 net74
*1300 net75
*1301 net76
*1302 net77
*1303 net78
*1304 net79
*1305 net8
*1306 net80
*1307 net81
*1308 net82
*1309 net83
*1310 net84
*1311 net85
*1312 net86
*1313 net87
*1314 net88
*1315 net89
*1316 net9
*1317 net90
*1318 net91
*1319 net92
*1320 net93
*1321 net94
*1322 net95
*1323 net96
*1324 net97
*1325 net98
*1326 net99
*1327 ANTENNA__021__A
*1328 ANTENNA__022__A
*1329 ANTENNA__023__A
*1330 ANTENNA__023__B
*1331 ANTENNA__025__A0
*1332 ANTENNA__025__A1
*1333 ANTENNA__025__S
*1334 ANTENNA__027__A0
*1335 ANTENNA__027__A1
*1336 ANTENNA__027__S
*1337 ANTENNA__028__A
*1338 ANTENNA__029__A
*1339 ANTENNA__029__B
*1340 ANTENNA__030__A
*1341 ANTENNA__031__A
*1342 ANTENNA__031__B
*1343 ANTENNA__032__A
*1344 ANTENNA__033__A
*1345 ANTENNA__033__B
*1346 ANTENNA__034__A
*1347 ANTENNA__035__A
*1348 ANTENNA__035__B
*1349 ANTENNA__036__A
*1350 ANTENNA__037__A
*1351 ANTENNA__038__A
*1352 ANTENNA__039__A1
*1353 ANTENNA__039__A2
*1354 ANTENNA__040__A1
*1355 ANTENNA__040__A2
*1356 ANTENNA__041__A1
*1357 ANTENNA__041__A2
*1358 ANTENNA__042__A1
*1359 ANTENNA__042__A2
*1360 ANTENNA__043__A1
*1361 ANTENNA__043__A2
*1362 ANTENNA__044__A
*1363 ANTENNA__045__A
*1364 ANTENNA__051__A
*1365 ANTENNA__052__A
*1366 ANTENNA__053__A1
*1367 ANTENNA__053__A2
*1368 ANTENNA__054__A1
*1369 ANTENNA__054__A2
*1370 ANTENNA__055__A1
*1371 ANTENNA__055__A2
*1372 ANTENNA__056__A1
*1373 ANTENNA__056__A2
*1374 ANTENNA__057__A1
*1375 ANTENNA__057__A2
*1376 ANTENNA__058__A
*1377 ANTENNA__059__A
*1378 ANTENNA__060__A1
*1379 ANTENNA__060__A2
*1380 ANTENNA__061__A1
*1381 ANTENNA__061__A2
*1382 ANTENNA__062__A1
*1383 ANTENNA__062__A2
*1384 ANTENNA__063__A1
*1385 ANTENNA__063__A2
*1386 ANTENNA__064__A1
*1387 ANTENNA__064__A2
*1388 ANTENNA__065__A
*1389 ANTENNA__066__A
*1390 ANTENNA__067__A1
*1391 ANTENNA__067__A2
*1392 ANTENNA__068__A1
*1393 ANTENNA__068__A2
*1394 ANTENNA__069__A1
*1395 ANTENNA__069__A2
*1396 ANTENNA__070__A1
*1397 ANTENNA__070__A2
*1398 ANTENNA__071__A1
*1399 ANTENNA__071__A2
*1400 ANTENNA__072__A
*1401 ANTENNA__073__A
*1402 ANTENNA__074__A1
*1403 ANTENNA__074__A2
*1404 ANTENNA__074__B1
*1405 ANTENNA__075__A1
*1406 ANTENNA__075__A2
*1407 ANTENNA__076__A1
*1408 ANTENNA__076__A2
*1409 ANTENNA__076__B1
*1410 ANTENNA__077__A1
*1411 ANTENNA__077__A2
*1412 ANTENNA__077__B1
*1413 ANTENNA__078__A1
*1414 ANTENNA__078__A2
*1415 ANTENNA__079__A1
*1416 ANTENNA__079__A2
*1417 ANTENNA__079__B1
*1418 ANTENNA__080__A1
*1419 ANTENNA__080__A2
*1420 ANTENNA__080__B1
*1421 ANTENNA__187__A
*1422 ANTENNA__188__A
*1423 ANTENNA__189__A
*1424 ANTENNA__190__A
*1425 ANTENNA__191__A
*1426 ANTENNA__192__A
*1427 ANTENNA__193__A
*1428 ANTENNA__194__A
*1429 ANTENNA__195__A
*1430 ANTENNA__196__A
*1431 ANTENNA__197__A
*1432 ANTENNA__198__A
*1433 ANTENNA__199__A
*1434 ANTENNA__200__A
*1435 ANTENNA__201__A
*1436 ANTENNA__202__A
*1437 ANTENNA__203__A
*1438 ANTENNA__204__A
*1439 ANTENNA__205__A
*1440 ANTENNA__206__A
*1441 ANTENNA__207__A
*1442 ANTENNA__208__A
*1443 ANTENNA__209__A
*1444 ANTENNA__210__A
*1445 ANTENNA__211__A
*1446 ANTENNA__212__A
*1447 ANTENNA__213__A
*1448 ANTENNA__214__A
*1449 ANTENNA__215__A
*1450 ANTENNA__216__A
*1451 ANTENNA__217__A
*1452 ANTENNA__218__A
*1453 ANTENNA__219__A
*1454 ANTENNA__220__A
*1455 ANTENNA__221__A
*1456 ANTENNA__222__A
*1457 ANTENNA__223__A
*1458 ANTENNA__224__A
*1459 ANTENNA__225__A
*1460 ANTENNA__226__A
*1461 ANTENNA__227__A
*1462 ANTENNA__228__A
*1463 ANTENNA__229__A
*1464 ANTENNA__230__A
*1465 ANTENNA__231__A
*1466 ANTENNA__232__A
*1467 ANTENNA__233__A
*1468 ANTENNA__234__A
*1469 ANTENNA__235__A
*1470 ANTENNA__236__A
*1471 ANTENNA__237__A
*1472 ANTENNA__238__A
*1473 ANTENNA__239__A
*1474 ANTENNA__240__A
*1475 ANTENNA__241__A
*1476 ANTENNA__242__A
*1477 ANTENNA__243__A
*1478 ANTENNA__244__A
*1479 ANTENNA__245__A
*1480 ANTENNA__246__A
*1481 ANTENNA__247__A
*1482 ANTENNA__248__A
*1483 ANTENNA__249__A
*1484 ANTENNA__250__A
*1485 ANTENNA__251__A
*1486 ANTENNA__252__A
*1487 ANTENNA__253__A
*1488 ANTENNA__254__A
*1489 ANTENNA__255__A
*1490 ANTENNA__256__A
*1491 ANTENNA__257__A
*1492 ANTENNA__258__A
*1493 ANTENNA__259__A
*1494 ANTENNA__260__A
*1495 ANTENNA__261__A
*1496 ANTENNA__262__A
*1497 ANTENNA__263__A
*1498 ANTENNA__264__A
*1499 ANTENNA__265__A
*1500 ANTENNA__266__A
*1501 ANTENNA__267__A
*1502 ANTENNA__268__A
*1503 ANTENNA__269__A
*1504 ANTENNA__270__A
*1505 ANTENNA__271__A
*1506 ANTENNA__272__A
*1507 ANTENNA__273__A
*1508 ANTENNA__274__A
*1509 ANTENNA__275__A
*1510 ANTENNA__276__A
*1511 ANTENNA__277__A
*1512 ANTENNA__278__A
*1513 ANTENNA__279__A
*1514 ANTENNA__280__A
*1515 ANTENNA__281__A
*1516 ANTENNA__282__A
*1517 ANTENNA__283__A
*1518 ANTENNA__284__A
*1519 ANTENNA__285__A
*1520 ANTENNA__286__A
*1521 ANTENNA__287__A
*1522 ANTENNA__288__A
*1523 ANTENNA__289__A
*1524 ANTENNA__290__A
*1525 ANTENNA__291__A
*1526 ANTENNA__292__A
*1527 ANTENNA__293__A
*1528 ANTENNA__294__A
*1529 ANTENNA__295__A
*1530 ANTENNA__296__A
*1531 ANTENNA__297__A
*1532 ANTENNA__298__A
*1533 ANTENNA__299__A
*1534 ANTENNA__300__A
*1535 ANTENNA__301__A
*1536 ANTENNA__302__A
*1537 ANTENNA__303__A
*1538 ANTENNA__304__A
*1539 ANTENNA__305__A
*1540 ANTENNA__306__A
*1541 ANTENNA__307__A
*1542 ANTENNA__308__A
*1543 ANTENNA__309__A
*1544 ANTENNA__310__A
*1545 ANTENNA__311__A
*1546 ANTENNA__312__A
*1547 ANTENNA__313__A
*1548 ANTENNA__314__A
*1549 ANTENNA__315__A
*1550 ANTENNA__316__A
*1551 ANTENNA__317__A
*1552 ANTENNA__318__A
*1553 ANTENNA__319__A
*1554 ANTENNA_clkbuf_0_counter\.clk_A
*1555 ANTENNA_clkbuf_3_4_0_counter\.clk_A
*1556 ANTENNA_clkbuf_3_5_0_counter\.clk_A
*1557 ANTENNA_counter\._336__A
*1558 ANTENNA_counter\._337__A
*1559 ANTENNA_counter\._337__B
*1560 ANTENNA_counter\._341__A
*1561 ANTENNA_counter\._342__A0
*1562 ANTENNA_counter\._342__A1
*1563 ANTENNA_counter\._344__A0
*1564 ANTENNA_counter\._344__A1
*1565 ANTENNA_counter\._346__A0
*1566 ANTENNA_counter\._346__A1
*1567 ANTENNA_counter\._348__A0
*1568 ANTENNA_counter\._348__A1
*1569 ANTENNA_counter\._350__A0
*1570 ANTENNA_counter\._350__A1
*1571 ANTENNA_counter\._352__A
*1572 ANTENNA_counter\._353__A0
*1573 ANTENNA_counter\._353__A1
*1574 ANTENNA_counter\._355__A0
*1575 ANTENNA_counter\._355__A1
*1576 ANTENNA_counter\._357__A0
*1577 ANTENNA_counter\._357__A1
*1578 ANTENNA_counter\._359__A0
*1579 ANTENNA_counter\._359__A1
*1580 ANTENNA_counter\._361__A0
*1581 ANTENNA_counter\._361__A1
*1582 ANTENNA_counter\._363__A
*1583 ANTENNA_counter\._364__A0
*1584 ANTENNA_counter\._364__A1
*1585 ANTENNA_counter\._366__A0
*1586 ANTENNA_counter\._366__A1
*1587 ANTENNA_counter\._368__A
*1588 ANTENNA_counter\._369__A0
*1589 ANTENNA_counter\._369__A1